
OS:Version,
  {801943bf-d749-4270-bcbf-aeef53b983e5}, !- Handle
  2.9.1;                                  !- Version Identifier

OS:Site,
  {04475c53-2976-4789-89f3-9db2c1316a08}, !- Handle
  TENA,                                   !- Name
  -0.978,                                 !- Latitude {deg}
  -77.809,                                !- Longitude {deg}
  -5,                                     !- Time Zone {hr}
  499,                                    !- Elevation {m}
  ;                                       !- Terrain

OS:YearDescription,
  {254b44fd-2b75-4395-bf70-7aae423a3bb0}, !- Handle
  ,                                       !- Calendar Year
  Sunday;                                 !- Day of Week for Start Day

OS:ClimateZones,
  {b2c92938-02d3-4c58-8a88-961592c79c48}, !- Handle
  ,                                       !- Active Institution
  ,                                       !- Active Year
  ,                                       !- Climate Zone Institution Name 1
  ,                                       !- Climate Zone Document Name 1
  ,                                       !- Climate Zone Document Year 1
  ,                                       !- Climate Zone Value 1
  CEC,                                    !- Climate Zone Institution Name 2
  California Climate Zone Descriptions,   !- Climate Zone Document Name 2
  1995,                                   !- Climate Zone Document Year 2
  ;                                       !- Climate Zone Value 2

OS:Building,
  {c9a938b0-d6c0-467b-a638-b648791c8702}, !- Handle
  tolita-bamboo,                          !- Name
  ,                                       !- Building Sector Type
  30,                                     !- North Axis {deg}
  ,                                       !- Nominal Floor to Floor Height {m}
  ,                                       !- Space Type Name
  ,                                       !- Default Construction Set Name
  ;                                       !- Default Schedule Set Name

OS:Facility,
  {0e55e6de-25f6-4ddb-adb3-3e10598c2ae8}; !- Handle

OS:SimulationControl,
  {60837c8e-cfda-4457-ae47-abbe2e2c0809}; !- Handle

OS:Sizing:Parameters,
  {49833136-12c8-46fc-97ea-88143cfa4692}, !- Handle
  1.25,                                   !- Heating Sizing Factor
  1.15;                                   !- Cooling Sizing Factor

OS:Timestep,
  {4664bc0b-9283-427c-af6a-9b4fa2c16a0e}, !- Handle
  4;                                      !- Number of Timesteps per Hour

OS:ShadowCalculation,
  {fdf9cf7e-e978-43cc-a2a3-bbd8587b301d}, !- Handle
  20,                                     !- Calculation Frequency
  15000;                                  !- Maximum Figures in Shadow Overlap Calculations

OS:HeatBalanceAlgorithm,
  {7dfe14c5-5e14-444d-8c89-900f3a9ad4c6}, !- Handle
  ConductionTransferFunction,             !- Algorithm
  200;                                    !- Surface Temperature Upper Limit {C}

OS:RunPeriod,
  {9b2473be-0656-4873-87ef-365eac171ac5}, !- Handle
  Run Period 1,                           !- Name
  1,                                      !- Begin Month
  1,                                      !- Begin Day of Month
  12,                                     !- End Month
  31,                                     !- End Day of Month
  ,                                       !- Use Weather File Holidays and Special Days
  ,                                       !- Use Weather File Daylight Saving Period
  ,                                       !- Apply Weekend Holiday Rule
  ,                                       !- Use Weather File Rain Indicators
  ,                                       !- Use Weather File Snow Indicators
  ;                                       !- Number of Times Runperiod to be Repeated

OS:LifeCycleCost:Parameters,
  {944f0adb-30a5-4f08-a55b-166c99261891}, !- Handle
  FEMP,                                   !- Analysis Type
  ,                                       !- Discounting Convention
  ,                                       !- Inflation Approach
  ,                                       !- Real Discount Rate
  ,                                       !- Nominal Discount Rate
  ,                                       !- Inflation
  ,                                       !- Base Date Month
  ,                                       !- Base Date Year
  ,                                       !- Service Date Month
  ,                                       !- Service Date Year
  ,                                       !- Length of Study Period in Years
  ,                                       !- Tax Rate
  ,                                       !- Depreciation Method
  Yes;                                    !- Use NIST Fuel Escalation Rates

OS:WeatherFile,
  {2442605a-d142-48a6-9036-4bebed199c30}, !- Handle
  TENA,                                   !- City
  -,                                      !- State Province Region
  -,                                      !- Country
  MN7,                                    !- Data Source
  999,                                    !- WMO Number
  -0.978,                                 !- Latitude {deg}
  -77.809,                                !- Longitude {deg}
  -5,                                     !- Time Zone {hr}
  499,                                    !- Elevation {m}
  file:TENA-hour.epw,                     !- Url
  0AB12A90;                               !- Checksum

OS:DefaultScheduleSet,
  {2f444118-7b0f-4a39-b62f-00ddc942b538}, !- Handle
  Asm Kitchen Schedule Set,               !- Name
  ,                                       !- Hours of Operation Schedule Name
  {a8cca937-ee27-4ff8-8af4-894a2826327a}, !- Number of People Schedule Name
  {2170cab7-6776-435a-9e77-aa89567f63bd}, !- People Activity Level Schedule Name
  {02597917-128e-4f58-8042-57d0d7034608}, !- Lighting Schedule Name
  {4518ea88-7136-43a7-905a-64cdc1354cb4}, !- Electric Equipment Schedule Name
  ,                                       !- Gas Equipment Schedule Name
  {453eabb5-133b-45c7-9f55-5dfa88726555}, !- Hot Water Equipment Schedule Name
  {375cd8c7-167a-4eb4-be3e-2b9e22c3afb0}, !- Infiltration Schedule Name
  ,                                       !- Steam Equipment Schedule Name
  ;                                       !- Other Equipment Schedule Name

OS:Schedule:Ruleset,
  {a8cca937-ee27-4ff8-8af4-894a2826327a}, !- Handle
  D_Asm_Aud_Occup_Yr,                     !- Name
  {afe706e7-a83b-48ff-a6c4-ae4fbedd43ca}, !- Schedule Type Limits Name
  {b4871042-6c62-4ad7-acf3-04b17d3371f5}, !- Default Day Schedule Name
  {c5be2301-469c-48e1-bdf1-a2dc9effd0fa}, !- Summer Design Day Schedule Name
  {44a9218b-5f6f-4b1e-bbd1-c8bae774fe57}; !- Winter Design Day Schedule Name

OS:Schedule:Day,
  {b4871042-6c62-4ad7-acf3-04b17d3371f5}, !- Handle
  D_Asm_Aud_Occup_Yr Default,             !- Name
  {afe706e7-a83b-48ff-a6c4-ae4fbedd43ca}, !- Schedule Type Limits Name
  ,                                       !- Interpolate to Timestep
  7,                                      !- Hour 1
  0,                                      !- Minute 1
  0,                                      !- Value Until Time 1
  9,                                      !- Hour 2
  0,                                      !- Minute 2
  0.05,                                   !- Value Until Time 2
  10,                                     !- Hour 3
  0,                                      !- Minute 3
  0.5,                                    !- Value Until Time 3
  11,                                     !- Hour 4
  0,                                      !- Minute 4
  0.6,                                    !- Value Until Time 4
  12,                                     !- Hour 5
  0,                                      !- Minute 5
  0.9,                                    !- Value Until Time 5
  13,                                     !- Hour 6
  0,                                      !- Minute 6
  0.8,                                    !- Value Until Time 6
  14,                                     !- Hour 7
  0,                                      !- Minute 7
  0.9,                                    !- Value Until Time 7
  16,                                     !- Hour 8
  0,                                      !- Minute 8
  0.5,                                    !- Value Until Time 8
  17,                                     !- Hour 9
  0,                                      !- Minute 9
  0.8,                                    !- Value Until Time 9
  18,                                     !- Hour 10
  0,                                      !- Minute 10
  0.9,                                    !- Value Until Time 10
  19,                                     !- Hour 11
  0,                                      !- Minute 11
  0.8,                                    !- Value Until Time 11
  21,                                     !- Hour 12
  0,                                      !- Minute 12
  0.7,                                    !- Value Until Time 12
  24,                                     !- Hour 13
  0,                                      !- Minute 13
  0;                                      !- Value Until Time 13

OS:Schedule:Day,
  {c5be2301-469c-48e1-bdf1-a2dc9effd0fa}, !- Handle
  D_Asm_Aud_Occup_Yr Summer Design Day,   !- Name
  {afe706e7-a83b-48ff-a6c4-ae4fbedd43ca}, !- Schedule Type Limits Name
  ,                                       !- Interpolate to Timestep
  7,                                      !- Hour 1
  0,                                      !- Minute 1
  0,                                      !- Value Until Time 1
  9,                                      !- Hour 2
  0,                                      !- Minute 2
  0.05,                                   !- Value Until Time 2
  10,                                     !- Hour 3
  0,                                      !- Minute 3
  0.5,                                    !- Value Until Time 3
  11,                                     !- Hour 4
  0,                                      !- Minute 4
  0.6,                                    !- Value Until Time 4
  12,                                     !- Hour 5
  0,                                      !- Minute 5
  0.9,                                    !- Value Until Time 5
  13,                                     !- Hour 6
  0,                                      !- Minute 6
  0.8,                                    !- Value Until Time 6
  14,                                     !- Hour 7
  0,                                      !- Minute 7
  0.9,                                    !- Value Until Time 7
  16,                                     !- Hour 8
  0,                                      !- Minute 8
  0.5,                                    !- Value Until Time 8
  17,                                     !- Hour 9
  0,                                      !- Minute 9
  0.8,                                    !- Value Until Time 9
  18,                                     !- Hour 10
  0,                                      !- Minute 10
  0.9,                                    !- Value Until Time 10
  19,                                     !- Hour 11
  0,                                      !- Minute 11
  0.8,                                    !- Value Until Time 11
  21,                                     !- Hour 12
  0,                                      !- Minute 12
  0.7,                                    !- Value Until Time 12
  24,                                     !- Hour 13
  0,                                      !- Minute 13
  0;                                      !- Value Until Time 13

OS:Schedule:Day,
  {44a9218b-5f6f-4b1e-bbd1-c8bae774fe57}, !- Handle
  D_Asm_Aud_Occup_Yr Winter Design Day,   !- Name
  {afe706e7-a83b-48ff-a6c4-ae4fbedd43ca}, !- Schedule Type Limits Name
  ,                                       !- Interpolate to Timestep
  7,                                      !- Hour 1
  0,                                      !- Minute 1
  0,                                      !- Value Until Time 1
  9,                                      !- Hour 2
  0,                                      !- Minute 2
  0.05,                                   !- Value Until Time 2
  10,                                     !- Hour 3
  0,                                      !- Minute 3
  0.5,                                    !- Value Until Time 3
  11,                                     !- Hour 4
  0,                                      !- Minute 4
  0.6,                                    !- Value Until Time 4
  12,                                     !- Hour 5
  0,                                      !- Minute 5
  0.9,                                    !- Value Until Time 5
  13,                                     !- Hour 6
  0,                                      !- Minute 6
  0.8,                                    !- Value Until Time 6
  14,                                     !- Hour 7
  0,                                      !- Minute 7
  0.9,                                    !- Value Until Time 7
  16,                                     !- Hour 8
  0,                                      !- Minute 8
  0.5,                                    !- Value Until Time 8
  17,                                     !- Hour 9
  0,                                      !- Minute 9
  0.8,                                    !- Value Until Time 9
  18,                                     !- Hour 10
  0,                                      !- Minute 10
  0.9,                                    !- Value Until Time 10
  19,                                     !- Hour 11
  0,                                      !- Minute 11
  0.8,                                    !- Value Until Time 11
  21,                                     !- Hour 12
  0,                                      !- Minute 12
  0.7,                                    !- Value Until Time 12
  24,                                     !- Hour 13
  0,                                      !- Minute 13
  0;                                      !- Value Until Time 13

OS:Schedule:Ruleset,
  {2170cab7-6776-435a-9e77-aa89567f63bd}, !- Handle
  DEER Activity 220W/person,              !- Name
  {cd8973ae-5b96-4ef5-b0dd-b48d97157931}, !- Schedule Type Limits Name
  {9505ccaf-1198-467c-a78c-725b752c8964}, !- Default Day Schedule Name
  {a127ec6d-e46c-4aa4-a4a4-f8acb772eac7}, !- Summer Design Day Schedule Name
  {254124be-331b-4aab-991b-dd40bf94c2c0}; !- Winter Design Day Schedule Name

OS:Schedule:Day,
  {9505ccaf-1198-467c-a78c-725b752c8964}, !- Handle
  DEER Activity 220W/person Default,      !- Name
  {cd8973ae-5b96-4ef5-b0dd-b48d97157931}, !- Schedule Type Limits Name
  ,                                       !- Interpolate to Timestep
  24,                                     !- Hour 1
  0,                                      !- Minute 1
  220;                                    !- Value Until Time 1

OS:Schedule:Day,
  {a127ec6d-e46c-4aa4-a4a4-f8acb772eac7}, !- Handle
  DEER Activity 220W/person Summer Design Day, !- Name
  {cd8973ae-5b96-4ef5-b0dd-b48d97157931}, !- Schedule Type Limits Name
  ,                                       !- Interpolate to Timestep
  24,                                     !- Hour 1
  0,                                      !- Minute 1
  220;                                    !- Value Until Time 1

OS:Schedule:Day,
  {254124be-331b-4aab-991b-dd40bf94c2c0}, !- Handle
  DEER Activity 220W/person Winter Design Day, !- Name
  {cd8973ae-5b96-4ef5-b0dd-b48d97157931}, !- Schedule Type Limits Name
  ,                                       !- Interpolate to Timestep
  24,                                     !- Hour 1
  0,                                      !- Minute 1
  220;                                    !- Value Until Time 1

OS:Schedule:Ruleset,
  {02597917-128e-4f58-8042-57d0d7034608}, !- Handle
  D17_Asm_Ktchn_LF_Yr,                    !- Name
  {afe706e7-a83b-48ff-a6c4-ae4fbedd43ca}, !- Schedule Type Limits Name
  {610c20e3-da80-4610-9055-aea1a0184ab4}, !- Default Day Schedule Name
  {bd756b88-920f-4d27-88d0-e024cede2dfb}, !- Summer Design Day Schedule Name
  {845991f8-8e34-4e1a-a9b5-be80c4733dc1}; !- Winter Design Day Schedule Name

OS:Schedule:Day,
  {610c20e3-da80-4610-9055-aea1a0184ab4}, !- Handle
  D17_Asm_Ktchn_LF_Yr Default,            !- Name
  {afe706e7-a83b-48ff-a6c4-ae4fbedd43ca}, !- Schedule Type Limits Name
  ,                                       !- Interpolate to Timestep
  7,                                      !- Hour 1
  0,                                      !- Minute 1
  0.1,                                    !- Value Until Time 1
  8,                                      !- Hour 2
  0,                                      !- Minute 2
  0.5583,                                 !- Value Until Time 2
  10,                                     !- Hour 3
  0,                                      !- Minute 3
  0.6194,                                 !- Value Until Time 3
  12,                                     !- Hour 4
  0,                                      !- Minute 4
  0.65,                                   !- Value Until Time 4
  14,                                     !- Hour 5
  0,                                      !- Minute 5
  0.5583,                                 !- Value Until Time 5
  16,                                     !- Hour 6
  0,                                      !- Minute 6
  0.6194,                                 !- Value Until Time 6
  17,                                     !- Hour 7
  0,                                      !- Minute 7
  0.65,                                   !- Value Until Time 7
  18,                                     !- Hour 8
  0,                                      !- Minute 8
  0.5583,                                 !- Value Until Time 8
  19,                                     !- Hour 9
  0,                                      !- Minute 9
  0.4972,                                 !- Value Until Time 9
  20,                                     !- Hour 10
  0,                                      !- Minute 10
  0.4361,                                 !- Value Until Time 10
  24,                                     !- Hour 11
  0,                                      !- Minute 11
  0.1;                                    !- Value Until Time 11

OS:Schedule:Day,
  {bd756b88-920f-4d27-88d0-e024cede2dfb}, !- Handle
  D17_Asm_Ktchn_LF_Yr Summer Design Day,  !- Name
  {afe706e7-a83b-48ff-a6c4-ae4fbedd43ca}, !- Schedule Type Limits Name
  ,                                       !- Interpolate to Timestep
  7,                                      !- Hour 1
  0,                                      !- Minute 1
  0.1,                                    !- Value Until Time 1
  8,                                      !- Hour 2
  0,                                      !- Minute 2
  0.5583,                                 !- Value Until Time 2
  10,                                     !- Hour 3
  0,                                      !- Minute 3
  0.6194,                                 !- Value Until Time 3
  12,                                     !- Hour 4
  0,                                      !- Minute 4
  0.65,                                   !- Value Until Time 4
  14,                                     !- Hour 5
  0,                                      !- Minute 5
  0.5583,                                 !- Value Until Time 5
  16,                                     !- Hour 6
  0,                                      !- Minute 6
  0.6194,                                 !- Value Until Time 6
  17,                                     !- Hour 7
  0,                                      !- Minute 7
  0.65,                                   !- Value Until Time 7
  18,                                     !- Hour 8
  0,                                      !- Minute 8
  0.5583,                                 !- Value Until Time 8
  19,                                     !- Hour 9
  0,                                      !- Minute 9
  0.4972,                                 !- Value Until Time 9
  20,                                     !- Hour 10
  0,                                      !- Minute 10
  0.4361,                                 !- Value Until Time 10
  24,                                     !- Hour 11
  0,                                      !- Minute 11
  0.1;                                    !- Value Until Time 11

OS:Schedule:Day,
  {845991f8-8e34-4e1a-a9b5-be80c4733dc1}, !- Handle
  D17_Asm_Ktchn_LF_Yr Winter Design Day,  !- Name
  {afe706e7-a83b-48ff-a6c4-ae4fbedd43ca}, !- Schedule Type Limits Name
  ,                                       !- Interpolate to Timestep
  7,                                      !- Hour 1
  0,                                      !- Minute 1
  0.1,                                    !- Value Until Time 1
  8,                                      !- Hour 2
  0,                                      !- Minute 2
  0.5583,                                 !- Value Until Time 2
  10,                                     !- Hour 3
  0,                                      !- Minute 3
  0.6194,                                 !- Value Until Time 3
  12,                                     !- Hour 4
  0,                                      !- Minute 4
  0.65,                                   !- Value Until Time 4
  14,                                     !- Hour 5
  0,                                      !- Minute 5
  0.5583,                                 !- Value Until Time 5
  16,                                     !- Hour 6
  0,                                      !- Minute 6
  0.6194,                                 !- Value Until Time 6
  17,                                     !- Hour 7
  0,                                      !- Minute 7
  0.65,                                   !- Value Until Time 7
  18,                                     !- Hour 8
  0,                                      !- Minute 8
  0.5583,                                 !- Value Until Time 8
  19,                                     !- Hour 9
  0,                                      !- Minute 9
  0.4972,                                 !- Value Until Time 9
  20,                                     !- Hour 10
  0,                                      !- Minute 10
  0.4361,                                 !- Value Until Time 10
  24,                                     !- Hour 11
  0,                                      !- Minute 11
  0.1;                                    !- Value Until Time 11

OS:Schedule:Ruleset,
  {4518ea88-7136-43a7-905a-64cdc1354cb4}, !- Handle
  D_Asm_Aud_Misc_Yr,                      !- Name
  {afe706e7-a83b-48ff-a6c4-ae4fbedd43ca}, !- Schedule Type Limits Name
  {236a7ad1-dedf-4063-a37f-11013d4535ee}, !- Default Day Schedule Name
  {c10f2261-5887-4a1d-9c47-e54badda9e28}, !- Summer Design Day Schedule Name
  {39ee40c1-02a2-4e5a-8e5c-1b770fccf0b4}; !- Winter Design Day Schedule Name

OS:Schedule:Day,
  {236a7ad1-dedf-4063-a37f-11013d4535ee}, !- Handle
  D_Asm_Aud_Misc_Yr Default,              !- Name
  {afe706e7-a83b-48ff-a6c4-ae4fbedd43ca}, !- Schedule Type Limits Name
  ,                                       !- Interpolate to Timestep
  8,                                      !- Hour 1
  0,                                      !- Minute 1
  0.25,                                   !- Value Until Time 1
  9,                                      !- Hour 2
  0,                                      !- Minute 2
  0.3,                                    !- Value Until Time 2
  10,                                     !- Hour 3
  0,                                      !- Minute 3
  0.65,                                   !- Value Until Time 3
  21,                                     !- Hour 4
  0,                                      !- Minute 4
  1,                                      !- Value Until Time 4
  24,                                     !- Hour 5
  0,                                      !- Minute 5
  0.25;                                   !- Value Until Time 5

OS:Schedule:Day,
  {c10f2261-5887-4a1d-9c47-e54badda9e28}, !- Handle
  D_Asm_Aud_Misc_Yr Summer Design Day,    !- Name
  {afe706e7-a83b-48ff-a6c4-ae4fbedd43ca}, !- Schedule Type Limits Name
  ,                                       !- Interpolate to Timestep
  8,                                      !- Hour 1
  0,                                      !- Minute 1
  0.25,                                   !- Value Until Time 1
  9,                                      !- Hour 2
  0,                                      !- Minute 2
  0.3,                                    !- Value Until Time 2
  10,                                     !- Hour 3
  0,                                      !- Minute 3
  0.65,                                   !- Value Until Time 3
  21,                                     !- Hour 4
  0,                                      !- Minute 4
  1,                                      !- Value Until Time 4
  24,                                     !- Hour 5
  0,                                      !- Minute 5
  0.25;                                   !- Value Until Time 5

OS:Schedule:Day,
  {39ee40c1-02a2-4e5a-8e5c-1b770fccf0b4}, !- Handle
  D_Asm_Aud_Misc_Yr Winter Design Day,    !- Name
  {afe706e7-a83b-48ff-a6c4-ae4fbedd43ca}, !- Schedule Type Limits Name
  ,                                       !- Interpolate to Timestep
  8,                                      !- Hour 1
  0,                                      !- Minute 1
  0.25,                                   !- Value Until Time 1
  9,                                      !- Hour 2
  0,                                      !- Minute 2
  0.3,                                    !- Value Until Time 2
  10,                                     !- Hour 3
  0,                                      !- Minute 3
  0.65,                                   !- Value Until Time 3
  21,                                     !- Hour 4
  0,                                      !- Minute 4
  1,                                      !- Value Until Time 4
  24,                                     !- Hour 5
  0,                                      !- Minute 5
  0.25;                                   !- Value Until Time 5

OS:Schedule:Ruleset,
  {375cd8c7-167a-4eb4-be3e-2b9e22c3afb0}, !- Handle
  D_Asm_All_C_Inf_Yr,                     !- Name
  {afe706e7-a83b-48ff-a6c4-ae4fbedd43ca}, !- Schedule Type Limits Name
  {61952158-3a95-4369-bc74-dc4efc2b288a}, !- Default Day Schedule Name
  {dbad844e-0af9-41ff-95ca-48b26fee6410}, !- Summer Design Day Schedule Name
  {d750bde9-9a55-418e-8d8d-0d2e25f23503}; !- Winter Design Day Schedule Name

OS:Schedule:Day,
  {61952158-3a95-4369-bc74-dc4efc2b288a}, !- Handle
  D_Asm_All_C_Inf_Yr Default,             !- Name
  {afe706e7-a83b-48ff-a6c4-ae4fbedd43ca}, !- Schedule Type Limits Name
  ,                                       !- Interpolate to Timestep
  8,                                      !- Hour 1
  0,                                      !- Minute 1
  1,                                      !- Value Until Time 1
  22,                                     !- Hour 2
  0,                                      !- Minute 2
  0.5,                                    !- Value Until Time 2
  24,                                     !- Hour 3
  0,                                      !- Minute 3
  1;                                      !- Value Until Time 3

OS:Schedule:Day,
  {dbad844e-0af9-41ff-95ca-48b26fee6410}, !- Handle
  D_Asm_All_C_Inf_Yr Summer Design Day,   !- Name
  {afe706e7-a83b-48ff-a6c4-ae4fbedd43ca}, !- Schedule Type Limits Name
  ,                                       !- Interpolate to Timestep
  8,                                      !- Hour 1
  0,                                      !- Minute 1
  1,                                      !- Value Until Time 1
  22,                                     !- Hour 2
  0,                                      !- Minute 2
  0.5,                                    !- Value Until Time 2
  24,                                     !- Hour 3
  0,                                      !- Minute 3
  1;                                      !- Value Until Time 3

OS:Schedule:Day,
  {d750bde9-9a55-418e-8d8d-0d2e25f23503}, !- Handle
  D_Asm_All_C_Inf_Yr Winter Design Day,   !- Name
  {afe706e7-a83b-48ff-a6c4-ae4fbedd43ca}, !- Schedule Type Limits Name
  ,                                       !- Interpolate to Timestep
  8,                                      !- Hour 1
  0,                                      !- Minute 1
  1,                                      !- Value Until Time 1
  22,                                     !- Hour 2
  0,                                      !- Minute 2
  0.5,                                    !- Value Until Time 2
  24,                                     !- Hour 3
  0,                                      !- Minute 3
  1;                                      !- Value Until Time 3

OS:ScheduleTypeLimits,
  {afe706e7-a83b-48ff-a6c4-ae4fbedd43ca}, !- Handle
  Fractional,                             !- Name
  0,                                      !- Lower Limit Value
  1,                                      !- Upper Limit Value
  Continuous;                             !- Numeric Type

OS:ScheduleTypeLimits,
  {cd8973ae-5b96-4ef5-b0dd-b48d97157931}, !- Handle
  ActivityLevel,                          !- Name
  0,                                      !- Lower Limit Value
  ,                                       !- Upper Limit Value
  Continuous,                             !- Numeric Type
  ActivityLevel;                          !- Unit Type

OS:DefaultScheduleSet,