
OS:Version,
  {a1659570-9e8d-48ad-aec2-750c78529ff7}, !- Handle
  2.9.1;                                  !- Version Identifier

OS:Site,
  {16cf24fa-ad1a-4843-b523-cac3b5fac956}, !- Handle
  TENA,                                   !- Name
  -0.978,                                 !- Latitude {deg}
  -77.809,                                !- Longitude {deg}
  -5,                                     !- Time Zone {hr}
  499,                                    !- Elevation {m}
  ;                                       !- Terrain

OS:YearDescription,
  {b1e37880-9f38-45d4-834e-b80c61855381}, !- Handle
  ,                                       !- Calendar Year
  Sunday;                                 !- Day of Week for Start Day

OS:ClimateZones,
  {6c465324-febf-4a00-b34d-a59865faf6f2}, !- Handle
  ,                                       !- Active Institution
  ,                                       !- Active Year
  ,                                       !- Climate Zone Institution Name 1
  ,                                       !- Climate Zone Document Name 1
  ,                                       !- Climate Zone Document Year 1
  ,                                       !- Climate Zone Value 1
  CEC,                                    !- Climate Zone Institution Name 2
  California Climate Zone Descriptions,   !- Climate Zone Document Name 2
  1995,                                   !- Climate Zone Document Year 2
  ;                                       !- Climate Zone Value 2

OS:Building,
  {8d34f03e-3537-4e83-bf7b-161317851ae0}, !- Handle
  Building 1,                             !- Name
  ,                                       !- Building Sector Type
  ,                                       !- North Axis {deg}
  ,                                       !- Nominal Floor to Floor Height {m}
  ,                                       !- Space Type Name
  ,                                       !- Default Construction Set Name
  ;                                       !- Default Schedule Set Name

OS:Facility,
  {5f0c1f0a-4a21-4324-a7d0-a15d6a5b6c49}; !- Handle

OS:SimulationControl,
  {6cf87ca2-f6af-4c96-83d1-00c0c96afafa}; !- Handle

OS:Sizing:Parameters,
  {94215e0e-9c4f-4acd-85f6-b6a542b4718a}, !- Handle
  1.25,                                   !- Heating Sizing Factor
  1.15;                                   !- Cooling Sizing Factor

OS:Timestep,
  {182dd349-8240-4d22-949b-ce114b584179}, !- Handle
  6;                                      !- Number of Timesteps per Hour

OS:ShadowCalculation,
  {ce6328da-db0a-442c-909f-5c7e4e0337e9}, !- Handle
  20,                                     !- Calculation Frequency
  15000;                                  !- Maximum Figures in Shadow Overlap Calculations

OS:HeatBalanceAlgorithm,
  {a96b2da8-81ff-4c1d-aa3e-461ea9ff602c}, !- Handle
  ConductionTransferFunction,             !- Algorithm
  200;                                    !- Surface Temperature Upper Limit {C}

OS:RunPeriod,
  {d658ec69-6e77-4fe1-bbd8-b2320a87f59a}, !- Handle
  Run Period 1,                           !- Name
  1,                                      !- Begin Month
  1,                                      !- Begin Day of Month
  12,                                     !- End Month
  31,                                     !- End Day of Month
  ,                                       !- Use Weather File Holidays and Special Days
  ,                                       !- Use Weather File Daylight Saving Period
  ,                                       !- Apply Weekend Holiday Rule
  ,                                       !- Use Weather File Rain Indicators
  ,                                       !- Use Weather File Snow Indicators
  ;                                       !- Number of Times Runperiod to be Repeated

OS:LifeCycleCost:Parameters,
  {59c91b81-8b0b-458b-bd4a-33f305c2b07c}, !- Handle
  FEMP,                                   !- Analysis Type
  ,                                       !- Discounting Convention
  ,                                       !- Inflation Approach
  ,                                       !- Real Discount Rate
  ,                                       !- Nominal Discount Rate
  ,                                       !- Inflation
  ,                                       !- Base Date Month
  ,                                       !- Base Date Year
  ,                                       !- Service Date Month
  ,                                       !- Service Date Year
  ,                                       !- Length of Study Period in Years
  ,                                       !- Tax Rate
  ,                                       !- Depreciation Method
  Yes;                                    !- Use NIST Fuel Escalation Rates

OS:Rendering:Color,
  {2f2e5246-1f64-48cf-a160-bdd398090944}, !- Handle
  Rendering Color 1,                      !- Name
  136,                                    !- Rendering Red Value
  204,                                    !- Rendering Green Value
  238,                                    !- Rendering Blue Value
  255;                                    !- Rendering Alpha Value

OS:Rendering:Color,
  {21a41c2b-bc94-4ac6-89e9-58acf69d7bc3}, !- Handle
  Rendering Color 2,                      !- Name
  51,                                     !- Rendering Red Value
  34,                                     !- Rendering Green Value
  136,                                    !- Rendering Blue Value
  255;                                    !- Rendering Alpha Value

OS:SpaceType,
  {dce635d8-dc0e-441a-9fc7-9a4d7ef11b42}, !- Handle
  EXT,                                    !- Name
  {9b0fba22-c279-4b6f-bb8b-564d2135b779}, !- Default Construction Set Name
  {75274748-f3c9-460b-aca9-e79f94bc767e}, !- Default Schedule Set Name
  {7a939536-759a-4357-b14b-4e569ef5800c}, !- Group Rendering Name
  {d8de836e-6d96-4d36-b81a-9f4decb5f4ab}; !- Design Specification Outdoor Air Object Name

OS:Rendering:Color,
  {7a939536-759a-4357-b14b-4e569ef5800c}, !- Handle
  Rendering Color 3,                      !- Name
  51,                                     !- Rendering Red Value
  34,                                     !- Rendering Green Value
  136,                                    !- Rendering Blue Value
  255;                                    !- Rendering Alpha Value

OS:SpaceType,
  {16c9275a-3b0c-4782-b561-ebb6d2a9ea84}, !- Handle
  INT,                                    !- Name
  {9b0fba22-c279-4b6f-bb8b-564d2135b779}, !- Default Construction Set Name
  {75274748-f3c9-460b-aca9-e79f94bc767e}, !- Default Schedule Set Name
  {54850312-e2a7-4392-afee-5bbece3c8a82}, !- Group Rendering Name
  {775f2d5b-5aed-41e7-96c7-719d4e0dea03}; !- Design Specification Outdoor Air Object Name

OS:Rendering:Color,
  {54850312-e2a7-4392-afee-5bbece3c8a82}, !- Handle
  Rendering Color 4,                      !- Name
  17,                                     !- Rendering Red Value
  119,                                    !- Rendering Green Value
  51,                                     !- Rendering Blue Value
  255;                                    !- Rendering Alpha Value

OS:SpaceType,
  {0f4637dc-4d06-473c-a0c2-66ec1dc33db0}, !- Handle
  BAÑO,                                  !- Name
  {9b0fba22-c279-4b6f-bb8b-564d2135b779}, !- Default Construction Set Name
  {4953265f-b344-4ad7-b8d3-64f17a8af558}, !- Default Schedule Set Name
  {58020fda-c997-423a-a32f-738a98762e92}, !- Group Rendering Name
  {0cbf9d77-8725-4942-8e88-6784f0ea8cda}; !- Design Specification Outdoor Air Object Name

OS:Rendering:Color,
  {58020fda-c997-423a-a32f-738a98762e92}, !- Handle
  Rendering Color 5,                      !- Name
  136,                                    !- Rendering Red Value
  204,                                    !- Rendering Green Value
  238,                                    !- Rendering Blue Value
  255;                                    !- Rendering Alpha Value

OS:Rendering:Color,
  {19e20d3e-817d-4c6d-b24d-e73bd58759f5}, !- Handle
  Rendering Color 6,                      !- Name
  17,                                     !- Rendering Red Value
  119,                                    !- Rendering Green Value
  51,                                     !- Rendering Blue Value
  255;                                    !- Rendering Alpha Value

OS:BuildingUnit,
  {48d3666c-3bd4-4420-845f-b8fa66e0f412}, !- Handle
  SHAKAI,                                 !- Name
  {7298c915-5070-4753-adb2-9048da2d13c2}, !- Rendering Color
  ;                                       !- Building Unit Type

OS:Rendering:Color,
  {7298c915-5070-4753-adb2-9048da2d13c2}, !- Handle
  Rendering Color 7,                      !- Name
  136,                                    !- Rendering Red Value
  204,                                    !- Rendering Green Value
  238,                                    !- Rendering Blue Value
  255;                                    !- Rendering Alpha Value

OS:DefaultConstructionSet,
  {9b0fba22-c279-4b6f-bb8b-564d2135b779}, !- Handle
  Construction Set,                       !- Name
  {426262c1-6c9b-427e-910f-5c4e2e809bc7}, !- Default Exterior Surface Constructions Name
  {0f878033-3036-4dff-970c-5992408026af}, !- Default Interior Surface Constructions Name
  {48e2700d-40bf-4da4-9c65-2cbc72d36c25}, !- Default Ground Contact Surface Constructions Name
  {f7d45a44-c02b-49e9-a4e6-2b1d4c02fc51}, !- Default Exterior SubSurface Constructions Name
  {de6c9a8d-4be6-4136-bec3-2b7218b224e3}, !- Default Interior SubSurface Constructions Name
  ,                                       !- Interior Partition Construction Name
  ,                                       !- Space Shading Construction Name
  ,                                       !- Building Shading Construction Name
  ,                                       !- Site Shading Construction Name
  ;                                       !- Adiabatic Surface Construction Name

OS:Rendering:Color,
  {46393f33-eb60-48d6-b305-00a00adaba24}, !- Handle
  Rendering Color 8,                      !- Name
  218,                                    !- Rendering Red Value
  165,                                    !- Rendering Green Value
  32,                                     !- Rendering Blue Value
  255;                                    !- Rendering Alpha Value

OS:Rendering:Color,
  {cdea3909-53c7-4c04-bcc6-3b5df6c8e636}, !- Handle
  Rendering Color 9,                      !- Name
  46,                                     !- Rendering Red Value
  139,                                    !- Rendering Green Value
  87,                                     !- Rendering Blue Value
  255;                                    !- Rendering Alpha Value

OS:Rendering:Color,
  {a767eb1a-173e-4062-82be-f560462107ef}, !- Handle
  Rendering Color 10,                     !- Name
  105,                                    !- Rendering Red Value
  105,                                    !- Rendering Green Value
  105,                                    !- Rendering Blue Value
  255;                                    !- Rendering Alpha Value

OS:Rendering:Color,
  {40f683d3-dfbc-46a6-b233-82c274aeacc5}, !- Handle
  Rendering Color 11,                     !- Name
  112,                                    !- Rendering Red Value
  128,                                    !- Rendering Green Value
  144,                                    !- Rendering Blue Value
  255;                                    !- Rendering Alpha Value

OS:ThermalZone,
  {9662cf95-364a-4dd6-a135-c4576c27d376}, !- Handle
  TZ INT,                                 !- Name
  1,                                      !- Multiplier
  ,                                       !- Ceiling Height {m}
  ,                                       !- Volume {m3}
  ,                                       !- Floor Area {m2}
  ,                                       !- Zone Inside Convection Algorithm
  ,                                       !- Zone Outside Convection Algorithm
  ,                                       !- Zone Conditioning Equipment List Name
  {70b876cd-651b-4a05-8005-0158ed563f71}, !- Zone Air Inlet Port List
  {d8e085a5-ad2f-4134-9cf6-4e3fdf087b45}, !- Zone Air Exhaust Port List
  {1ea34299-18c6-4081-bcbd-69274b46bbf5}, !- Zone Air Node Name
  {758f95c9-ef53-4a0e-8a27-9c80e14be2c6}, !- Zone Return Air Port List
  ,                                       !- Primary Daylighting Control Name
  ,                                       !- Fraction of Zone Controlled by Primary Daylighting Control
  ,                                       !- Secondary Daylighting Control Name
  ,                                       !- Fraction of Zone Controlled by Secondary Daylighting Control
  ,                                       !- Illuminance Map Name
  {f82ec2dd-f747-47ef-8531-e5167bc14805}, !- Group Rendering Name
  ,                                       !- Thermostat Name
  No;                                     !- Use Ideal Air Loads

OS:Node,
  {2a166e2d-012c-423b-a743-2a4a4fc1b165}, !- Handle
  Node 4,                                 !- Name
  {1ea34299-18c6-4081-bcbd-69274b46bbf5}, !- Inlet Port
  ;                                       !- Outlet Port

OS:Connection,
  {1ea34299-18c6-4081-bcbd-69274b46bbf5}, !- Handle
  {1767bda5-2e6c-46bc-8098-1419521f8352}, !- Name
  {9662cf95-364a-4dd6-a135-c4576c27d376}, !- Source Object
  11,                                     !- Outlet Port
  {2a166e2d-012c-423b-a743-2a4a4fc1b165}, !- Target Object
  2;                                      !- Inlet Port

OS:PortList,
  {70b876cd-651b-4a05-8005-0158ed563f71}, !- Handle
  {71db8bc2-7bc1-4215-9fd2-d241d4651ab7}, !- Name
  {9662cf95-364a-4dd6-a135-c4576c27d376}; !- HVAC Component

OS:PortList,
  {d8e085a5-ad2f-4134-9cf6-4e3fdf087b45}, !- Handle
  {e67dc508-85f4-4425-a1cb-a7e46ead12c9}, !- Name
  {9662cf95-364a-4dd6-a135-c4576c27d376}; !- HVAC Component

OS:PortList,
  {758f95c9-ef53-4a0e-8a27-9c80e14be2c6}, !- Handle
  {215e0617-81b8-48d1-a918-2c3614d9d49c}, !- Name
  {9662cf95-364a-4dd6-a135-c4576c27d376}; !- HVAC Component

OS:Sizing:Zone,
  {77ddf968-bf38-42f2-ac0d-970d2dea0d3d}, !- Handle
  {9662cf95-364a-4dd6-a135-c4576c27d376}, !- Zone or ZoneList Name
  SupplyAirTemperature,                   !- Zone Cooling Design Supply Air Temperature Input Method
  14,                                     !- Zone Cooling Design Supply Air Temperature {C}
  11.11,                                  !- Zone Cooling Design Supply Air Temperature Difference {deltaC}
  SupplyAirTemperature,                   !- Zone Heating Design Supply Air Temperature Input Method
  40,                                     !- Zone Heating Design Supply Air Temperature {C}
  11.11,                                  !- Zone Heating Design Supply Air Temperature Difference {deltaC}
  0.0085,                                 !- Zone Cooling Design Supply Air Humidity Ratio {kg-H2O/kg-air}
  0.008,                                  !- Zone Heating Design Supply Air Humidity Ratio {kg-H2O/kg-air}
  ,                                       !- Zone Heating Sizing Factor
  ,                                       !- Zone Cooling Sizing Factor
  DesignDay,                              !- Cooling Design Air Flow Method
  ,                                       !- Cooling Design Air Flow Rate {m3/s}
  ,                                       !- Cooling Minimum Air Flow per Zone Floor Area {m3/s-m2}
  ,                                       !- Cooling Minimum Air Flow {m3/s}
  ,                                       !- Cooling Minimum Air Flow Fraction
  DesignDay,                              !- Heating Design Air Flow Method
  ,                                       !- Heating Design Air Flow Rate {m3/s}
  ,                                       !- Heating Maximum Air Flow per Zone Floor Area {m3/s-m2}
  ,                                       !- Heating Maximum Air Flow {m3/s}
  ,                                       !- Heating Maximum Air Flow Fraction
  ,                                       !- Design Zone Air Distribution Effectiveness in Cooling Mode
  ,                                       !- Design Zone Air Distribution Effectiveness in Heating Mode
  No,                                     !- Account for Dedicated Outdoor Air System
  NeutralSupplyAir,                       !- Dedicated Outdoor Air System Control Strategy
  autosize,                               !- Dedicated Outdoor Air Low Setpoint Temperature for Design {C}
  autosize;                               !- Dedicated Outdoor Air High Setpoint Temperature for Design {C}

OS:ZoneHVAC:EquipmentList,
  {a383b738-9199-4f2a-a377-e40c1c02e4f8}, !- Handle
  Zone HVAC Equipment List 4,             !- Name
  {9662cf95-364a-4dd6-a135-c4576c27d376}; !- Thermal Zone

OS:Rendering:Color,
  {f82ec2dd-f747-47ef-8531-e5167bc14805}, !- Handle
  Rendering Color 12,                     !- Name
  136,                                    !- Rendering Red Value
  204,                                    !- Rendering Green Value
  238,                                    !- Rendering Blue Value
  255;                                    !- Rendering Alpha Value

OS:Rendering:Color,
  {9d9bafa7-7abf-4f9c-80c5-48f2d517cf61}, !- Handle
  Rendering Color 13,                     !- Name
  51,                                     !- Rendering Red Value
  34,                                     !- Rendering Green Value
  136,                                    !- Rendering Blue Value
  255;                                    !- Rendering Alpha Value

OS:ThermalZone,
  {116d0670-0d02-4a47-9044-cd7e3833f453}, !- Handle
  TZ BAÑO,                               !- Name
  1,                                      !- Multiplier
  ,                                       !- Ceiling Height {m}
  ,                                       !- Volume {m3}
  ,                                       !- Floor Area {m2}
  ,                                       !- Zone Inside Convection Algorithm
  ,                                       !- Zone Outside Convection Algorithm
  ,                                       !- Zone Conditioning Equipment List Name
  {c9d0bc03-440f-4fa1-ba47-36d0db9da9d4}, !- Zone Air Inlet Port List
  {8ded2a8d-c6c1-4867-af65-d6492b3ad659}, !- Zone Air Exhaust Port List
  {835a99ca-5877-4f62-92d0-bdf1939ca428}, !- Zone Air Node Name
  {456b1923-7168-48a9-8a10-2fbc8c172cc6}, !- Zone Return Air Port List
  ,                                       !- Primary Daylighting Control Name
  ,                                       !- Fraction of Zone Controlled by Primary Daylighting Control
  ,                                       !- Secondary Daylighting Control Name
  ,                                       !- Fraction of Zone Controlled by Secondary Daylighting Control
  ,                                       !- Illuminance Map Name
  {ceec2c11-b735-46b5-b865-3863419ee45d}, !- Group Rendering Name
  ,                                       !- Thermostat Name
  No;                                     !- Use Ideal Air Loads

OS:Node,
  {5ffe7b25-a7a5-482a-bcec-0c8b3ea593ae}, !- Handle
  Node 6,                                 !- Name
  {835a99ca-5877-4f62-92d0-bdf1939ca428}, !- Inlet Port
  ;                                       !- Outlet Port

OS:Connection,
  {835a99ca-5877-4f62-92d0-bdf1939ca428}, !- Handle
  {745389d3-8851-45b8-ac91-d41bc2691892}, !- Name
  {116d0670-0d02-4a47-9044-cd7e3833f453}, !- Source Object
  11,                                     !- Outlet Port
  {5ffe7b25-a7a5-482a-bcec-0c8b3ea593ae}, !- Target Object
  2;                                      !- Inlet Port

OS:PortList,
  {c9d0bc03-440f-4fa1-ba47-36d0db9da9d4}, !- Handle
  {84bfb846-0677-4e9a-8004-6f19e022392f}, !- Name
  {116d0670-0d02-4a47-9044-cd7e3833f453}; !- HVAC Component

OS:PortList,
  {8ded2a8d-c6c1-4867-af65-d6492b3ad659}, !- Handle
  {af04aeba-25b3-404f-8542-090a6c37aa6b}, !- Name
  {116d0670-0d02-4a47-9044-cd7e3833f453}; !- HVAC Component

OS:PortList,
  {456b1923-7168-48a9-8a10-2fbc8c172cc6}, !- Handle
  {2e63782f-bf17-4da2-a426-751a47fc0449}, !- Name
  {116d0670-0d02-4a47-9044-cd7e3833f453}; !- HVAC Component

OS:Sizing:Zone,
  {f20a17c2-b89d-40b2-aa01-d4d312316496}, !- Handle
  {116d0670-0d02-4a47-9044-cd7e3833f453}, !- Zone or ZoneList Name
  SupplyAirTemperature,                   !- Zone Cooling Design Supply Air Temperature Input Method
  14,                                     !- Zone Cooling Design Supply Air Temperature {C}
  11.11,                                  !- Zone Cooling Design Supply Air Temperature Difference {deltaC}
  SupplyAirTemperature,                   !- Zone Heating Design Supply Air Temperature Input Method
  40,                                     !- Zone Heating Design Supply Air Temperature {C}
  11.11,                                  !- Zone Heating Design Supply Air Temperature Difference {deltaC}
  0.0085,                                 !- Zone Cooling Design Supply Air Humidity Ratio {kg-H2O/kg-air}
  0.008,                                  !- Zone Heating Design Supply Air Humidity Ratio {kg-H2O/kg-air}
  ,                                       !- Zone Heating Sizing Factor
  ,                                       !- Zone Cooling Sizing Factor
  DesignDay,                              !- Cooling Design Air Flow Method
  ,                                       !- Cooling Design Air Flow Rate {m3/s}
  ,                                       !- Cooling Minimum Air Flow per Zone Floor Area {m3/s-m2}
  ,                                       !- Cooling Minimum Air Flow {m3/s}
  ,                                       !- Cooling Minimum Air Flow Fraction
  DesignDay,                              !- Heating Design Air Flow Method
  ,                                       !- Heating Design Air Flow Rate {m3/s}
  ,                                       !- Heating Maximum Air Flow per Zone Floor Area {m3/s-m2}
  ,                                       !- Heating Maximum Air Flow {m3/s}
  ,                                       !- Heating Maximum Air Flow Fraction
  ,                                       !- Design Zone Air Distribution Effectiveness in Cooling Mode
  ,                                       !- Design Zone Air Distribution Effectiveness in Heating Mode
  No,                                     !- Account for Dedicated Outdoor Air System
  NeutralSupplyAir,                       !- Dedicated Outdoor Air System Control Strategy
  autosize,                               !- Dedicated Outdoor Air Low Setpoint Temperature for Design {C}
  autosize;                               !- Dedicated Outdoor Air High Setpoint Temperature for Design {C}

OS:ZoneHVAC:EquipmentList,
  {03232b69-44e3-47ee-a899-c61746149431}, !- Handle
  Zone HVAC Equipment List 6,             !- Name
  {116d0670-0d02-4a47-9044-cd7e3833f453}; !- Thermal Zone

OS:Rendering:Color,
  {ceec2c11-b735-46b5-b865-3863419ee45d}, !- Handle
  Rendering Color 14,                     !- Name
  17,                                     !- Rendering Red Value
  119,                                    !- Rendering Green Value
  51,                                     !- Rendering Blue Value
  255;                                    !- Rendering Alpha Value

OS:Rendering:Color,
  {fa2043df-463f-4982-a3b2-906f8b2cd343}, !- Handle
  Rendering Color 15,                     !- Name
  139,                                    !- Rendering Red Value
  69,                                     !- Rendering Green Value
  19,                                     !- Rendering Blue Value
  255;                                    !- Rendering Alpha Value

OS:Rendering:Color,
  {239e2ff2-2f2d-478b-b8b8-52c0a12f1efc}, !- Handle
  Rendering Color 16,                     !- Name
  255,                                    !- Rendering Red Value
  127,                                    !- Rendering Green Value
  80,                                     !- Rendering Blue Value
  255;                                    !- Rendering Alpha Value

OS:Rendering:Color,
  {4818754f-64ba-4079-91e9-50627c01ad77}, !- Handle
  Rendering Color 17,                     !- Name
  25,                                     !- Rendering Red Value
  25,                                     !- Rendering Green Value
  112,                                    !- Rendering Blue Value
  255;                                    !- Rendering Alpha Value

OS:Rendering:Color,
  {39575186-9061-44d2-ad29-bc6068b97555}, !- Handle
  Rendering Color 18,                     !- Name
  123,                                    !- Rendering Red Value
  104,                                    !- Rendering Green Value
  238,                                    !- Rendering Blue Value
  255;                                    !- Rendering Alpha Value

OS:Rendering:Color,
  {51d53f30-f108-4c3d-b266-4b7c0d6e6dab}, !- Handle
  Rendering Color 19,                     !- Name
  255,                                    !- Rendering Red Value
  239,                                    !- Rendering Green Value
  213,                                    !- Rendering Blue Value
  255;                                    !- Rendering Alpha Value

OS:Rendering:Color,
  {133578f1-9982-4b19-a605-775ec66b1acf}, !- Handle
  Rendering Color 20,                     !- Name
  128,                                    !- Rendering Red Value
  128,                                    !- Rendering Green Value
  128,                                    !- Rendering Blue Value
  255;                                    !- Rendering Alpha Value

OS:Rendering:Color,
  {f1d5e53b-f1c5-4c6b-b3a4-c80c7c25baf5}, !- Handle
  Rendering Color 21,                     !- Name
  139,                                    !- Rendering Red Value
  0,                                      !- Rendering Green Value
  0,                                      !- Rendering Blue Value
  255;                                    !- Rendering Alpha Value

OS:Rendering:Color,
  {8c013fc2-bfc8-4076-b4fb-3b41a6f19c75}, !- Handle
  Rendering Color 22,                     !- Name
  119,                                    !- Rendering Red Value
  136,                                    !- Rendering Green Value
  153,                                    !- Rendering Blue Value
  255;                                    !- Rendering Alpha Value

OS:Rendering:Color,
  {b9b11f9e-4cf9-4857-ab64-d957694c1e5a}, !- Handle
  Rendering Color 23,                     !- Name
  199,                                    !- Rendering Red Value
  21,                                     !- Rendering Green Value
  133,                                    !- Rendering Blue Value
  255;                                    !- Rendering Alpha Value

OS:Rendering:Color,
  {1adf892e-d860-413f-a76e-b907d2b08777}, !- Handle
  Rendering Color 24,                     !- Name
  240,                                    !- Rendering Red Value
  230,                                    !- Rendering Green Value
  140,                                    !- Rendering Blue Value
  255;                                    !- Rendering Alpha Value

OS:Rendering:Color,
  {b3b69f0b-3735-4c99-a540-707cf2c82792}, !- Handle
  Rendering Color 25,                     !- Name
  169,                                    !- Rendering Red Value
  169,                                    !- Rendering Green Value
  169,                                    !- Rendering Blue Value
  255;                                    !- Rendering Alpha Value

OS:Rendering:Color,
  {f738bdb8-c6d5-405a-984e-980c9b55c819}, !- Handle
  Rendering Color 26,                     !- Name
  221,                                    !- Rendering Red Value
  160,                                    !- Rendering Green Value
  221,                                    !- Rendering Blue Value
  255;                                    !- Rendering Alpha Value

OS:Rendering:Color,
  {52b29d77-82b4-4e00-992f-da70b05d1547}, !- Handle
  Rendering Color 27,                     !- Name
  46,                                     !- Rendering Red Value
  139,                                    !- Rendering Green Value
  87,                                     !- Rendering Blue Value
  255;                                    !- Rendering Alpha Value

OS:Rendering:Color,
  {f8b03b57-e092-4d3d-bdd5-92e51032dd5c}, !- Handle
  Rendering Color 28,                     !- Name
  106,                                    !- Rendering Red Value
  90,                                     !- Rendering Green Value
  205,                                    !- Rendering Blue Value
  255;                                    !- Rendering Alpha Value

OS:Rendering:Color,
  {c4f62f5a-ecdc-4ff7-a75b-df61ec8c466a}, !- Handle
  Rendering Color 29,                     !- Name
  255,                                    !- Rendering Red Value
  255,                                    !- Rendering Green Value
  224,                                    !- Rendering Blue Value
  255;                                    !- Rendering Alpha Value

OS:Rendering:Color,
  {d6526c4d-21da-46cf-bfc0-0829dc5325dd}, !- Handle
  Rendering Color 30,                     !- Name
  255,                                    !- Rendering Red Value
  250,                                    !- Rendering Green Value
  250,                                    !- Rendering Blue Value
  255;                                    !- Rendering Alpha Value

OS:Rendering:Color,
  {48e8c388-661b-40f5-9ddc-2cfe8b2e5a5d}, !- Handle
  Rendering Color 31,                     !- Name
  218,                                    !- Rendering Red Value
  165,                                    !- Rendering Green Value
  32,                                     !- Rendering Blue Value
  255;                                    !- Rendering Alpha Value

OS:Rendering:Color,