
OS:Version,
  {d7325b9a-d277-419f-bce7-a9e7fcb79d75}, !- Handle
  2.9.1;                                  !- Version Identifier

OS:ScheduleTypeLimits,
  {bc3c52d5-c0e6-4771-9027-386c816456db}, !- Handle
  Lights Schedule Type Limits,            !- Name
  0,                                      !- Lower Limit Value
  1,                                      !- Upper Limit Value
  Continuous,                             !- Numeric Type
  Dimensionless;                          !- Unit Type

OS:ScheduleTypeLimits,
  {020c7f69-3bc5-4dfc-8132-72ed164b700e}, !- Handle
  Occupancy Schedule Type Limits,         !- Name
  0,                                      !- Lower Limit Value
  1,                                      !- Upper Limit Value
  Continuous,                             !- Numeric Type
  Dimensionless;                          !- Unit Type

OS:ScheduleTypeLimits,
  {26900520-e14b-428e-88ba-610173aa0fcb}, !- Handle
  People Activity Type Limits,            !- Name
  0,                                      !- Lower Limit Value
  ,                                       !- Upper Limit Value
  Continuous,                             !- Numeric Type
  ActivityLevel;                          !- Unit Type

OS:ScheduleTypeLimits,
  {e2402aec-fbd3-41ce-a7d2-b49b85f99285}, !- Handle
  Equipment Schedule Type Limits,         !- Name
  0,                                      !- Lower Limit Value
  1,                                      !- Upper Limit Value
  Continuous,                             !- Numeric Type
  Dimensionless;                          !- Unit Type

OS:ScheduleTypeLimits,
  {ec1fd10c-3094-42e5-9e7e-b60118ba2574}, !- Handle
  Water Use Schedule Type Limits,         !- Name
  0,                                      !- Lower Limit Value
  1,                                      !- Upper Limit Value
  Continuous,                             !- Numeric Type
  Dimensionless;                          !- Unit Type

OS:ScheduleTypeLimits,
  {8a007b9e-2e7d-4999-b119-571945417859}, !- Handle
  Elevators Schedule Type Limits,         !- Name
  0,                                      !- Lower Limit Value
  1,                                      !- Upper Limit Value
  Continuous,                             !- Numeric Type
  Dimensionless;                          !- Unit Type

OS:ScheduleTypeLimits,
  {07fb58aa-a09f-435b-9ff8-50f83703f6a7}, !- Handle
  Process Loads Schedule Type Limits,     !- Name
  0,                                      !- Lower Limit Value
  1,                                      !- Upper Limit Value
  Continuous,                             !- Numeric Type
  Dimensionless;                          !- Unit Type

OS:ScheduleTypeLimits,
  {7ff33d4a-ae5b-414f-8917-18110c7f1996}, !- Handle
  Thermostat Heating Setpoint Schedule Type Limits, !- Name
  0,                                      !- Lower Limit Value
  100,                                    !- Upper Limit Value
  Continuous,                             !- Numeric Type
  Temperature;                            !- Unit Type

OS:ScheduleTypeLimits,
  {4216fcfc-3c3e-4f43-bd50-87f6375e2ddb}, !- Handle
  Thermostat Cooling Setpoint Schedule Type Limits, !- Name
  0,                                      !- Lower Limit Value
  100,                                    !- Upper Limit Value
  Continuous,                             !- Numeric Type
  Temperature;                            !- Unit Type

OS:ScheduleTypeLimits,
  {5d7ea16b-1b69-4c47-bbb5-2b5de286f131}, !- Handle
  HVAC Operation Schedule Type Limits,    !- Name
  0,                                      !- Lower Limit Value
  1,                                      !- Upper Limit Value
  Discrete,                               !- Numeric Type
  Availability;                           !- Unit Type

OS:Material:AirWall,
  {866ff0eb-51eb-46c7-8a6e-13c70cf5fa72}, !- Handle
  Material Air Wall 1;                    !- Name

OS:Construction,
  {0ff88eb8-6620-4836-8960-e40b6482b1fb}, !- Handle
  Air Wall,                               !- Name
  {2d64d366-1b4c-41cd-92ee-8ada62243548}, !- Surface Rendering Name
  {866ff0eb-51eb-46c7-8a6e-13c70cf5fa72}; !- Layer 1

OS:Construction,
  {2f762e58-b574-41ae-b69e-e8d5df5a0168}, !- Handle
  SLAB-ON-GRADE-FLOOR,                    !- Name
  {edbb0422-300c-4e92-b0ae-8135cc197431}, !- Surface Rendering Name
  {27386e32-241b-4047-9c91-7afab2b78444}; !- Layer 1

OS:ComponentData,
  {0d655534-ec49-4be5-b37c-728f19c3cb95}, !- Handle
  OS:ComponentData 1,                     !- Name
  {afaa9a4e-235a-4813-a0a8-73cc09d91774}, !- UUID
  {e8d3a4e6-8b85-4e5c-a3ac-0c8b32f66c7b}, !- Version UUID
  ,                                       !- Creation Timestamp
  ,                                       !- Version Timestamp
  {27386e32-241b-4047-9c91-7afab2b78444}; !- Name of Object 1

OS:Material,
  {27386e32-241b-4047-9c91-7afab2b78444}, !- Handle
  Lightweight Concrete - 6 in. - 80 lb/ft3, ! Name
  MediumRough,                            ! Roughness
  0.1524,                                 ! Thickness {m}
  0.53,                                   ! Conductivity {W/m-K}
  1281.47706991681,                       ! Density {kg/m3}
  840;                                    ! Specific Heat {J/kg-K}

OS:Construction,
  {66984aae-0868-46a3-9f1b-b8bcdcc2f82b}, !- Handle
  INTERIOR-WALL,                          !- Name
  {05c58a9d-d79e-40d3-bf32-b899445f9054}, !- Surface Rendering Name
  {2f236abc-1fc9-4605-864e-c1618d38273c}, !- Layer 1
  {bcc8c33e-8167-44ff-89ce-7179c3920b4b}, !- Layer 2
  {2f236abc-1fc9-4605-864e-c1618d38273c}; !- Layer 3

OS:Material,
  {2f236abc-1fc9-4605-864e-c1618d38273c}, !- Handle
  Gypsum Board - 5/8 in.,                 ! Name
  MediumSmooth,                           ! Roughness
  0.015875,                               ! Thickness {m}
  0.16,                                   ! Conductivity {W/m-K}
  800,                                    ! Density {kg/m3}
  1090;                                   ! Specific Heat {J/kg-K}

OS:ComponentData,
  {83aed676-0408-4d3e-b9f6-1a0b142b06b8}, !- Handle
  OS:ComponentData 2,                     !- Name
  {fc8f23d6-0b72-4750-9608-a16ba081226a}, !- UUID
  {7cdc7973-c083-47e9-98c7-8e86a3f1b92c}, !- Version UUID
  ,                                       !- Creation Timestamp
  ,                                       !- Version Timestamp
  {2f236abc-1fc9-4605-864e-c1618d38273c}; !- Name of Object 1

OS:Material,
  {bcc8c33e-8167-44ff-89ce-7179c3920b4b}, !- Handle
  Wood-Framed - 4 in. Studs - 16 in. OC - R-0 Cavity Insulation, ! Name
  Smooth,                                 ! Roughness
  0.0889,                                 ! Thickness {m}
  0.367216996560281,                      ! Conductivity {W/m-K}
  126.145399069936,                       ! Density {kg/m3}
  1556.29337142857;                       ! Specific Heat {J/kg-K}

OS:ComponentData,
  {39c6d086-d9b2-4c8c-86cd-9860e9329321}, !- Handle
  OS:ComponentData 3,                     !- Name
  {0e17b719-d1be-467c-9747-01bb7cf9361b}, !- UUID
  {53aaab8e-7379-449e-b3cd-68ba9d61fef4}, !- Version UUID
  ,                                       !- Creation Timestamp
  ,                                       !- Version Timestamp
  {bcc8c33e-8167-44ff-89ce-7179c3920b4b}; !- Name of Object 1

OS:Construction,
  {1b374378-94ee-47dc-b334-86b6729bbad8}, !- Handle
  Default interior ceiling,               !- Name
  {b6c8cd71-e02b-40b2-9df1-17c0e9d25927}, !- Surface Rendering Name
  {b3e5825c-9a8b-46af-afb3-f980267d7dc2}; !- Layer 1

OS:Material,
  {f8b57b1b-37ab-485f-9b55-e57f01d46d4a}, !- Handle
  Carpet - 1/2 in.,                       ! Name
  MediumRough,                            ! Roughness
  0.0127,                                 ! Thickness {m}
  0.06,                                   ! Conductivity {W/m-K}
  288,                                    ! Density {kg/m3}
  1380;                                   ! Specific Heat {J/kg-K}

OS:ComponentData,
  {4a8b16a1-bcd8-410d-9fbe-c2b02c008e96}, !- Handle
  OS:ComponentData 4,                     !- Name
  {f135dc61-c030-48c2-bcfd-bf2f1e84db95}, !- UUID
  {27d4cac7-02d9-440d-bc68-55fc405ad9f8}, !- Version UUID
  ,                                       !- Creation Timestamp
  ,                                       !- Version Timestamp
  {f8b57b1b-37ab-485f-9b55-e57f01d46d4a}; !- Name of Object 1

OS:Construction,
  {acf43842-a371-448b-a7d5-c978dc795025}, !- Handle
  EXTERIOR-WALL,                          !- Name
  {0f1613b0-293a-4a32-a0d9-e518b625a006}, !- Surface Rendering Name
  {9f6dc75a-8f6a-45e1-baba-3d17d6c58858}, !- Layer 1
  {4c84bca9-1fca-42d7-9300-4dd2ce8d906c}, !- Layer 2
  {23f2c30e-c8ec-4515-9f72-cfd36e1eaade}, !- Layer 3
  {2f236abc-1fc9-4605-864e-c1618d38273c}; !- Layer 4

OS:ComponentData,
  {4144edee-0e55-4c83-9a95-dd40391dd3ea}, !- Handle
  OS:ComponentData 5,                     !- Name
  {3869d6b1-a96d-4477-965f-58b38a1e3a23}, !- UUID
  {5b27766e-0f16-49a0-84e8-462cb6148703}, !- Version UUID
  ,                                       !- Creation Timestamp
  1406585854,                             !- Version Timestamp
  {4c84bca9-1fca-42d7-9300-4dd2ce8d906c}; !- Name of Object 1

OS:Material,
  {4c84bca9-1fca-42d7-9300-4dd2ce8d906c}, !- Handle
  Expanded Polystyrene - Extruded - 1 in., ! Name
  MediumSmooth,                           ! Roughness
  0.0254,                                 ! Thickness {m}
  0.0290000458418302,                     ! Conductivity {W/m-K}
  29,                                     ! Density {kg/m3}
  1210;                                   ! Specific Heat {J/kg-K}

OS:ComponentData,
  {14ed42ee-65c7-4390-9c5a-400b7a156878}, !- Handle
  OS:ComponentData 6,                     !- Name
  {fca1a645-7f7d-4816-81a9-bbdb6c5dd1b6}, !- UUID
  {e3023371-60ca-4cd1-9c1b-4024f7ad4c21}, !- Version UUID
  ,                                       !- Creation Timestamp
  1406585963,                             !- Version Timestamp
  {23f2c30e-c8ec-4515-9f72-cfd36e1eaade}; !- Name of Object 1

OS:Material,
  {23f2c30e-c8ec-4515-9f72-cfd36e1eaade}, !- Handle
  Wood-Framed - 4 in. Studs - 16 in. OC - R-11 Cavity Insulation, ! Name
  Smooth,                                 ! Roughness
  0.0889,                                 ! Thickness {m}
  0.0603344200649287,                     ! Conductivity {W/m-K}
  126.145399069936,                       ! Density {kg/m3}
  1556.29337142857,                       ! Specific Heat {J/kg-K}
  ,                                       !- Thermal Absorptance
  ,                                       !- Solar Absorptance
  ;                                       !- Visible Absorptance

OS:Construction,
  {76d4957f-67c7-49d6-acc8-8d978a384f56}, !- Handle
  EXTERIOR-ROOF,                          !- Name
  {4515b5fd-ca23-47da-bb97-fb33736d16c9}, !- Surface Rendering Name
  {bf5cd459-80bf-41c0-a329-5ec46ef3f55c}, !- Layer 1
  {90f6b7e6-a97c-4329-8dd9-431134f40b0d}, !- Layer 2
  {bfcdf888-e4eb-46b3-b551-489d37c2cf74}, !- Layer 3
  {2d0dfbce-9893-46fc-b892-07f14621a67a}; !- Layer 4

OS:ComponentData,
  {9bf00d0f-7c25-4820-bea0-4fa1c3f60332}, !- Handle
  OS:ComponentData 7,                     !- Name
  {ea7cff06-8eeb-4909-970f-4a5510dec322}, !- UUID
  {64817b4e-076d-4592-88fc-e375787220ef}, !- Version UUID
  ,                                       !- Creation Timestamp
  ,                                       !- Version Timestamp
  {bf5cd459-80bf-41c0-a329-5ec46ef3f55c}; !- Name of Object 1

OS:Material,
  {bf5cd459-80bf-41c0-a329-5ec46ef3f55c}, !- Handle
  Built-up Roofing - 3/8 in.,             ! Name
  Rough,                                  ! Roughness
  0.009525,                               ! Thickness {m}
  0.16,                                   ! Conductivity {W/m-K}
  1120,                                   ! Density {kg/m3}
  1460;                                   ! Specific Heat {J/kg-K}

OS:Material,
  {90f6b7e6-a97c-4329-8dd9-431134f40b0d}, !- Handle
  Hardboard - High Density - Standard-tempered Grade - 3/4 in., ! Name
  Smooth,                                 ! Roughness
  0.01905,                                ! Thickness {m}
  0.144,                                  ! Conductivity {W/m-K}
  1010,                                   ! Density {kg/m3}
  1340;                                   ! Specific Heat {J/kg-K}

OS:ComponentData,
  {5fbf066d-4cbc-4272-b4f7-d5dbda41b774}, !- Handle
  OS:ComponentData 8,                     !- Name
  {53370f06-ff9d-43d1-99ff-d9d9418f16a1}, !- UUID
  {15eef9b1-d134-4f5d-8de1-5e6364e00ebd}, !- Version UUID
  ,                                       !- Creation Timestamp
  ,                                       !- Version Timestamp
  {90f6b7e6-a97c-4329-8dd9-431134f40b0d}; !- Name of Object 1

OS:Material,
  {bfcdf888-e4eb-46b3-b551-489d37c2cf74}, !- Handle
  Mineral Fiber Batt Insulation - 10 in., ! Name
  VeryRough,                              ! Roughness
  0.254,                                  ! Thickness {m}
  0.05,                                   ! Conductivity {W/m-K}
  19,                                     ! Density {kg/m3}
  960;                                    ! Specific Heat {J/kg-K}

OS:ComponentData,
  {1d789dba-f7de-402c-9d6f-3ac23206738a}, !- Handle
  OS:ComponentData 9,                     !- Name
  {676c3b20-fc9c-4c9e-856a-5a1c3b7fb8ed}, !- UUID
  {666ec6ea-15e4-4ef9-9131-9eb62d50da71}, !- Version UUID
  ,                                       !- Creation Timestamp
  ,                                       !- Version Timestamp
  {bfcdf888-e4eb-46b3-b551-489d37c2cf74}; !- Name of Object 1

OS:Material,
  {2d0dfbce-9893-46fc-b892-07f14621a67a}, !- Handle
  Vegetable Fiber Board  Sheathing - Intermediate Density - 1/2 in., ! Name
  Smooth,                                 ! Roughness
  0.0127,                                 ! Thickness {m}
  0.057,                                  ! Conductivity {W/m-K}
  350,                                    ! Density {kg/m3}
  1300;                                   ! Specific Heat {J/kg-K}

OS:ComponentData,
  {90559edb-1f2f-4a9f-a21e-7fae18b8f04a}, !- Handle
  OS:ComponentData 10,                    !- Name
  {a36b984b-4d4a-4888-ad1a-42df684a097c}, !- UUID
  {2894d7ba-7d68-4575-b24b-1443493f0792}, !- Version UUID
  ,                                       !- Creation Timestamp
  ,                                       !- Version Timestamp
  {2d0dfbce-9893-46fc-b892-07f14621a67a}; !- Name of Object 1

OS:Schedule:Day,
  {a78ccb1d-1542-4f34-bdf9-312e4fda1d14}, !- Handle
  All Weekends,                           !- Name
  {5d7ea16b-1b69-4c47-bbb5-2b5de286f131}, !- Schedule Type Limits Name
  ,                                       !- Interpolate to Timestep
  24,                                     !- Hour 1
  0,                                      !- Minute 1
  0.995;                                  !- Value Until Time 1

OS:Schedule:Day,
  {4ae3502b-f3f8-42a3-9178-4a76ecdaea76}, !- Handle
  All Weekdays,                           !- Name
  {5d7ea16b-1b69-4c47-bbb5-2b5de286f131}, !- Schedule Type Limits Name
  ,                                       !- Interpolate to Timestep
  24,                                     !- Hour 1
  0,                                      !- Minute 1
  0.995;                                  !- Value Until Time 1

OS:Schedule:Day,
  {8134d155-c1c7-4cc3-941e-04d58a3b1fa4}, !- Handle
  All Weekends 1,                         !- Name
  {020c7f69-3bc5-4dfc-8132-72ed164b700e}, !- Schedule Type Limits Name
  ,                                       !- Interpolate to Timestep
  24,                                     !- Hour 1
  0,                                      !- Minute 1
  0;                                      !- Value Until Time 1

OS:Schedule:Day,
  {69c909ab-0dfa-431e-a51a-555d5f1e1c53}, !- Handle
  All Weekdays 1,                         !- Name
  {020c7f69-3bc5-4dfc-8132-72ed164b700e}, !- Schedule Type Limits Name
  ,                                       !- Interpolate to Timestep
  6,                                      !- Hour 1
  0,                                      !- Minute 1
  0,                                      !- Value Until Time 1
  11,                                     !- Hour 2
  0,                                      !- Minute 2
  0.3,                                    !- Value Until Time 2
  12,                                     !- Hour 3
  45,                                     !- Minute 3
  0.5,                                    !- Value Until Time 3
  17,                                     !- Hour 4
  0,                                      !- Minute 4
  0.2975,                                 !- Value Until Time 4
  24,                                     !- Hour 5
  0,                                      !- Minute 5
  0;                                      !- Value Until Time 5

OS:Schedule:Day,
  {fd83cdb7-9715-4c71-a5e1-ee0ce83f04ee}, !- Handle
  All Weekends 2,                         !- Name
  {ec1fd10c-3094-42e5-9e7e-b60118ba2574}, !- Schedule Type Limits Name
  ,                                       !- Interpolate to Timestep
  24,                                     !- Hour 1
  0,                                      !- Minute 1
  0;                                      !- Value Until Time 1

OS:Schedule:Day,
  {2b4e9e71-36a4-47cc-a93e-16ce35524b63}, !- Handle
  All Weekdays 2,                         !- Name
  {ec1fd10c-3094-42e5-9e7e-b60118ba2574}, !- Schedule Type Limits Name
  ,                                       !- Interpolate to Timestep
  6,                                      !- Hour 1
  45,                                     !- Minute 1
  0.0475,                                 !- Value Until Time 1
  17,                                     !- Hour 2
  0,                                      !- Minute 2
  0.1525,                                 !- Value Until Time 2
  24,                                     !- Hour 3
  0,                                      !- Minute 3
  0;                                      !- Value Until Time 3

OS:Schedule:Day,
  {4e712abe-a326-4b3f-8ccc-065dcf8ef7dd}, !- Handle
  All Weekends 3,                         !- Name
  {e2402aec-fbd3-41ce-a7d2-b49b85f99285}, !- Schedule Type Limits Name
  ,                                       !- Interpolate to Timestep
  24,                                     !- Hour 1
  0,                                      !- Minute 1
  0.3075;                                 !- Value Until Time 1

OS:Schedule:Day,
  {c913ea20-0f15-4f17-a1f9-948a070d524d}, !- Handle
  All Weekdays 3,                         !- Name
  {e2402aec-fbd3-41ce-a7d2-b49b85f99285}, !- Schedule Type Limits Name
  ,                                       !- Interpolate to Timestep
  6,                                      !- Hour 1
  15,                                     !- Minute 1
  0.5,                                    !- Value Until Time 1
  17,                                     !- Hour 2
  0,                                      !- Minute 2
  0.9,                                    !- Value Until Time 2
  24,                                     !- Hour 3
  0,                                      !- Minute 3
  0.3025;                                 !- Value Until Time 3

OS:Schedule:Day,
  {31a17d65-8a11-4d4b-bcd1-1b060c22b542}, !- Handle
  All Weekends 4,                         !- Name
  {bc3c52d5-c0e6-4771-9027-386c816456db}, !- Schedule Type Limits Name
  ,                                       !- Interpolate to Timestep
  24,                                     !- Hour 1
  0,                                      !- Minute 1
  0.055;                                  !- Value Until Time 1

OS:Schedule:Day,
  {17571513-1421-4c2d-a6af-a67cbac75fe7}, !- Handle
  All Weekdays 4,                         !- Name
  {bc3c52d5-c0e6-4771-9027-386c816456db}, !- Schedule Type Limits Name
  ,                                       !- Interpolate to Timestep
  6,                                      !- Hour 1
  15,                                     !- Minute 1
  0.5,                                    !- Value Until Time 1
  17,                                     !- Hour 2
  0,                                      !- Minute 2
  0.7975,                                 !- Value Until Time 2
  24,                                     !- Hour 3
  0,                                      !- Minute 3
  0.0525;                                 !- Value Until Time 3

OS:Schedule:Day,
  {c79209d3-2d11-4f0c-884b-b73090428eb7}, !- Handle
  All Weekends 5,                         !- Name
  {4216fcfc-3c3e-4f43-bd50-87f6375e2ddb}, !- Schedule Type Limits Name
  ,                                       !- Interpolate to Timestep
  24,                                     !- Hour 1
  0,                                      !- Minute 1
  29.3333333333333;                       !- Value Until Time 1

OS:Schedule:Day,
  {ca6e8a8b-c1c0-4624-9644-f773df50678b}, !- Handle
  All Weekdays 5,                         !- Name
  {4216fcfc-3c3e-4f43-bd50-87f6375e2ddb}, !- Schedule Type Limits Name
  ,                                       !- Interpolate to Timestep
  24,                                     !- Hour 1
  0,                                      !- Minute 1
  29.3333333333333;                       !- Value Until Time 1

OS:Schedule:Day,
  {a195fc2b-c4e6-482f-bce8-a9b254c981c8}, !- Handle
  All Weekends 6,                         !- Name
  {7ff33d4a-ae5b-414f-8917-18110c7f1996}, !- Schedule Type Limits Name
  ,                                       !- Interpolate to Timestep
  24,                                     !- Hour 1
  0,                                      !- Minute 1
  21.9444444444444;                       !- Value Until Time 1

OS:Schedule:Day,
  {83081611-8407-4a13-bcaa-3e81056d35c7}, !- Handle
  All Weekdays 6,                         !- Name
  {7ff33d4a-ae5b-414f-8917-18110c7f1996}, !- Schedule Type Limits Name
  ,                                       !- Interpolate to Timestep
  24,                                     !- Hour 1
  0,                                      !- Minute 1
  22.1111111111111;                       !- Value Until Time 1

OS:Schedule:Day,
  {e5ac60e0-7c5d-43bd-a1fc-a2901aa8ba65}, !- Handle
  Building HVAC Operation Summer Design Day, !- Name
  {5d7ea16b-1b69-4c47-bbb5-2b5de286f131}, !- Schedule Type Limits Name
  ,                                       !- Interpolate to Timestep
  24,                                     !- Hour 1
  0,                                      !- Minute 1
  1;                                      !- Value Until Time 1

OS:Schedule:Day,
  {6dd088ae-8780-4b4b-be44-050dbe1b4e43}, !- Handle
  Building HVAC Operation Winter Design Day, !- Name
  {5d7ea16b-1b69-4c47-bbb5-2b5de286f131}, !- Schedule Type Limits Name
  ,                                       !- Interpolate to Timestep
  24,                                     !- Hour 1
  0,                                      !- Minute 1
  0;                                      !- Value Until Time 1

OS:Schedule:Day,
  {b4e306e3-82f7-4b8c-bf18-243c0c106908}, !- Handle
  Space Occupancy Summer Design Day,      !- Name
  {020c7f69-3bc5-4dfc-8132-72ed164b700e}, !- Schedule Type Limits Name
  ,                                       !- Interpolate to Timestep
  24,                                     !- Hour 1
  0,                                      !- Minute 1
  1;                                      !- Value Until Time 1

OS:Schedule:Day,
  {52ca87ba-53d7-4f80-aac5-92872a6b7bb2}, !- Handle
  Space Occupancy Winter Design Day,      !- Name
  {020c7f69-3bc5-4dfc-8132-72ed164b700e}, !- Schedule Type Limits Name
  ,                                       !- Interpolate to Timestep
  24,                                     !- Hour 1
  0,                                      !- Minute 1
  0;                                      !- Value Until Time 1

OS:Schedule:Ruleset,
  {ca02a5df-92ba-40fc-a952-1ca47ac2fd07}, !- Handle
  Building Water Use,                     !- Name
  {ec1fd10c-3094-42e5-9e7e-b60118ba2574}, !- Schedule Type Limits Name
  {39ac3470-3b76-4642-855c-1b81e44cdf37}; !- Default Day Schedule Name

OS:Schedule:Day,
  {39ac3470-3b76-4642-855c-1b81e44cdf37}, !- Handle
  Building Water Use Default Weekday Schedule, !- Name
  {ec1fd10c-3094-42e5-9e7e-b60118ba2574}, !- Schedule Type Limits Name
  ,                                       !- Interpolate to Timestep
  6,                                      !- Hour 1
  45,                                     !- Minute 1
  0,                                      !- Value Until Time 1
  9,                                      !- Hour 2
  0,                                      !- Minute 2
  0.152500003576279,                      !- Value Until Time 2
  15,                                     !- Hour 3
  0,                                      !- Minute 3
  0,                                      !- Value Until Time 3
  17,                                     !- Hour 4
  0,                                      !- Minute 4
  0.152500003576279,                      !- Value Until Time 4
  24,                                     !- Hour 5
  0,                                      !- Minute 5
  0;                                      !- Value Until Time 5

OS:Schedule:Rule,
  {083f63e3-b529-42e0-a09c-4aa62f741c05}, !- Handle
  Building Water Use Default Weekend Schedule, !- Name
  {ca02a5df-92ba-40fc-a952-1ca47ac2fd07}, !- Schedule Ruleset Name
  0,                                      !- Rule Order
  {7946e2e1-b6d0-4a1c-a23a-a231ba3790d7}, !- Day Schedule Name
  Yes,                                    !- Apply Sunday
  No,                                     !- Apply Monday
  No,                                     !- Apply Tuesday
  No,                                     !- Apply Wednesday
  No,                                     !- Apply Thursday
  No,                                     !- Apply Friday
  Yes;                                    !- Apply Saturday

OS:Schedule:Day,
  {7946e2e1-b6d0-4a1c-a23a-a231ba3790d7}, !- Handle
  All Weekends 9,                         !- Name
  {ec1fd10c-3094-42e5-9e7e-b60118ba2574}, !- Schedule Type Limits Name
  ,                                       !- Interpolate to Timestep
  24,                                     !- Hour 1
  0,                                      !- Minute 1
  0.27901354432106;                       !- Value Until Time 1

OS:Schedule:Ruleset,
  {d1ed1478-483f-4361-bdee-e3ed12d9ff8b}, !- Handle
  Building Plug Load,                     !- Name
  {e2402aec-fbd3-41ce-a7d2-b49b85f99285}, !- Schedule Type Limits Name
  {66fb1e86-2b97-468b-801c-98bee744197a}, !- Default Day Schedule Name
  {5eaa07d9-e58e-46f6-bfa1-5a1ccc90ac69}, !- Summer Design Day Schedule Name
  {80f2a48d-1e58-4262-b156-932e35e961de}; !- Winter Design Day Schedule Name

OS:Schedule:Day,
  {66fb1e86-2b97-468b-801c-98bee744197a}, !- Handle
  Building Plug Load Default Weekday Schedule, !- Name
  {e2402aec-fbd3-41ce-a7d2-b49b85f99285}, !- Schedule Type Limits Name
  ,                                       !- Interpolate to Timestep
  6,                                      !- Hour 1
  15,                                     !- Minute 1
  0,                                      !- Value Until Time 1
  8,                                      !- Hour 2
  0,                                      !- Minute 2
  0.899999916553497,                      !- Value Until Time 2
  15,                                     !- Hour 3
  0,                                      !- Minute 3
  0.147688120603561,                      !- Value Until Time 3
  17,                                     !- Hour 4
  0,                                      !- Minute 4
  0.899999916553497,                      !- Value Until Time 4
  24,                                     !- Hour 5
  0,                                      !- Minute 5
  0;                                      !- Value Until Time 5

OS:Schedule:Rule,
  {00da0468-b5e5-4274-9f83-587941ecfa3b}, !- Handle
  Building Plug Load Default Weekend Schedule, !- Name
  {d1ed1478-483f-4361-bdee-e3ed12d9ff8b}, !- Schedule Ruleset Name
  0,                                      !- Rule Order
  {574c3e66-42d3-459c-98fd-117ef191b85b}, !- Day Schedule Name
  Yes,                                    !- Apply Sunday
  No,                                     !- Apply Monday
  No,                                     !- Apply Tuesday
  No,                                     !- Apply Wednesday
  No,                                     !- Apply Thursday
  No,                                     !- Apply Friday
  Yes;                                    !- Apply Saturday

OS:Schedule:Day,
  {574c3e66-42d3-459c-98fd-117ef191b85b}, !- Handle
  All Weekends 10,                        !- Name
  {e2402aec-fbd3-41ce-a7d2-b49b85f99285}, !- Schedule Type Limits Name
  ,                                       !- Interpolate to Timestep
  24,                                     !- Hour 1
  0,                                      !- Minute 1
  0.300000011920929;                      !- Value Until Time 1

OS:Schedule:Day,
  {0b27bba3-0b84-453a-937f-07ad40f246a9}, !- Handle
  Building Plug Load Summer Design Day,   !- Name
  {e2402aec-fbd3-41ce-a7d2-b49b85f99285}, !- Schedule Type Limits Name
  ,                                       !- Interpolate to Timestep
  24,                                     !- Hour 1
  0,                                      !- Minute 1
  1;                                      !- Value Until Time 1

OS:Schedule:Day,
  {5eaa07d9-e58e-46f6-bfa1-5a1ccc90ac69}, !- Handle
  Building Plug Load Summer Design Day 1, !- Name
  {e2402aec-fbd3-41ce-a7d2-b49b85f99285}, !- Schedule Type Limits Name
  ,                                       !- Interpolate to Timestep
  24,                                     !- Hour 1
  0,                                      !- Minute 1
  1;                                      !- Value Until Time 1
